#	Created by:	Discovery Studio
#	Creation time:	2024-01-11T11:02:41Z

@<SCITEGIC>ROOT_PROPERTY
Ligand:MaximumNumberOfAtoms
SciTegic.value.IntegerValue
100

@<SCITEGIC>ROOT_PROPERTY
Ligand:HydrogenAtomsCountTowardsMaximum
SciTegic.value.BooleanValue
FALSE

@<TRIPOS>MOLECULE
Molecule
   42    43     3 0 0
PROTEIN
USER_CHARGES


@<TRIPOS>ATOM
      1 N            -2.326000   -1.273000   -0.137000 N.3      1 ALA1      -0.3203
      2 CA           -1.382000   -1.833000   -1.136000 C.3      1 ALA1       0.1352
      3 C            -0.445000   -2.882000   -0.446000 C.2      1 ALA1       0.2287
      4 O            -0.875000   -3.625000    0.462000 O.2      1 ALA1      -0.2759
      5 CB           -2.207000   -2.558000   -2.241000 C.3      1 ALA1       0.0343
      6 H1           -2.012000   -0.490000    0.451000 H        1 ALA1       0.1191
      7 H2           -3.169000   -0.958000   -0.646000 H        1 ALA1       0.1191
      8 H14          -2.811150   -1.900896   -2.691704 H        1 ALA1       0.0000
      9 H16          -2.755374   -3.283970   -1.825899 H        1 ALA1       0.0000
     10 H18          -1.584752   -2.955135   -2.915645 H        1 ALA1       0.0000
     11 N02           0.844000   -2.926000   -0.901000 N.am     2 UNK2      -0.3064
     12 C03           2.015000   -2.852000    0.005000 C.3      2 UNK2       0.1256
     13 C04           2.447000   -4.295000    0.408000 C.3      2 UNK2       0.2633
     14 O05           2.271000   -5.275000   -0.363000 O.3      2 UNK2      -0.1531
     15 C06           3.201000   -2.185000   -0.757000 C.3      2 UNK2       0.0336
     16 O07           2.548000   -4.447000    1.222000 O.3      2 UNK2      -0.3665
     17 H01           1.009000   -3.020000   -1.915000 H        2 UNK2       0.1499
     18 H08           1.861000   -5.121000    1.454000 H        2 UNK2       0.2134
     19 O01           2.598000   -4.920000   -0.839000 O.3      3 UNK0      -0.1812
     20 C02           0.275000   -1.611000   -1.444000 C.3      3 UNK0       0.1388
     21 N03           0.639000   -2.818000   -0.715000 N.3      3 UNK0      -0.2563
     22 C04           1.802000   -2.849000    0.199000 C.3      3 UNK0       0.1041
     23 C05           2.506000   -1.457000    0.083000 C.3      3 UNK0       0.0301
     24 C06          -1.204000   -2.071000   -1.182000 C.3      3 UNK0       0.1274
     25 C07          -0.569000   -3.243000   -0.396000 C.3      3 UNK0       0.2057
     26 C08           3.094000   -0.964000    1.449000 C.3      3 UNK0       0.0245
     27 C09           3.604000   -1.437000   -1.034000 C.3      3 UNK0       0.0245
     28 C10           2.635000   -4.162000    0.145000 C.3      3 UNK0       0.1296
     29 S11           1.110000   -0.364000   -0.405000 S.3      3 UNK0      -0.1329
     30 C12           3.511000   -4.508000    1.373000 C.3      3 UNK0       0.0398
     31 O13          -1.021000   -4.162000    0.291000 O.3      3 UNK0      -0.1642
     32 C14          -2.828000   -0.247000   -0.815000 C.3      3 UNK0       0.1826
     33 O15          -3.024000   -0.115000   -2.037000 O.3      3 UNK0      -0.1664
     34 C16          -3.563000    0.649000    0.214000 C.3      3 UNK0       0.0514
     35 C17          -4.604000   -0.096000    1.081000 C.3      3 UNK0      -0.0072
     36 C18          -4.417000   -0.210000    2.488000 C.3      3 UNK0       0.0036
     37 C19          -5.366000   -0.888000    3.283000 C.3      3 UNK0       0.0003
     38 C20          -6.508000   -1.453000    2.670000 C.3      3 UNK0       0.0000
     39 C21          -6.697000   -1.336000    1.265000 C.3      3 UNK0       0.0003
     40 C22          -5.748000   -0.658000    0.470000 C.3      3 UNK0       0.0036
     41 N23          -1.970000   -1.156000   -0.303000 N.3      3 UNK0      -0.2834
     42 H24          -1.857000   -1.209000    0.606000 H        3 UNK0       0.1253
@<TRIPOS>BOND
     1    3    2 1
     2    3    4 2
     3    1    2 1
     4    2    5 1
     5    6    1 1
     6    7    1 1
     7    5    8 1
     8    5    9 1
     9    5   10 1
    10   11   12 1
    11   11   17 1
    12   12   13 1
    13   12   15 1
    14   13   16 1
    15   13   14 1
    16   16   18 1
    17    3   11 1
    18   19   28 1
    19   20   29 1
    20   20   21 1
    21   20   24 1
    22   21   22 1
    23   21   25 1
    24   22   23 1
    25   22   28 1
    26   24   25 1
    27   24   41 1
    28   25   31 1
    29   26   23 1
    30   27   23 1
    31   28   30 1
    32   29   23 1
    33   32   34 1
    34   32   41 1
    35   32   33 1
    36   34   35 1
    37   35   40 1
    38   35   36 1
    39   36   37 1
    40   37   38 1
    41   38   39 1
    42   39   40 1
    43   41   42 1
@<TRIPOS>SUBSTRUCTURE
1 ALA1 1 RESIDUE 1 A ALA
2 UNK2 11 RESIDUE 1 A UNK
3 UNK0 19 RESIDUE 1 A2 UNK
@<TRIPOS>SET
GROUP:Backbone STATIC ATOMS <user>
4 1 2 3 4
GROUP:Sidechain STATIC ATOMS <user>
11 5 6 7 11 12 13 14 15 16 17 18
GROUP:Hydrophobic STATIC SUBSTRUCTURES <user>
1 1
@<SCITEGIC>ATOM_PROPERTY
Formal Charge
SciTegic.value.StringValue
1 0
2 0
3 0
4 0
5 0
6 0
7 0
8 0
9 0
10 0
11 0
12 0
13 0
14 0
15 0
16 0
17 0
18 0
19 0
20 0
21 0
22 0
23 0
24 0
25 0
26 0
27 0
28 0
29 0
30 0
31 0
32 0
33 0
34 0
35 0
36 0
37 0
38 0
39 0
40 0
41 0
42 0

@<SCITEGIC>ATOM_PROPERTY
pdb_tempFactor
SciTegic.value.DoubleValue
1 0.00
2 0.00
3 0.00
4 0.00
5 0.00
6 0.00
7 0.00
8 0.00
9 0.00
10 0.00
11 0.00
12 0.00
13 0.00
14 0.00
15 0.00
16 0.00
17 0.00
18 0.00
19 0.00
20 0.00
21 0.00
22 0.00
23 0.00
24 0.00
25 0.00
26 0.00
27 0.00
28 0.00
29 0.00
30 0.00
31 0.00
32 0.00
33 0.00
34 0.00
35 0.00
36 0.00
37 0.00
38 0.00
39 0.00
40 0.00
41 0.00
42 0.00

@<SCITEGIC>ATOM_PROPERTY
pdb_occupancy
SciTegic.value.DoubleValue
1 1.00
2 1.00
3 1.00
4 1.00
5 1.00
6 1.00
7 1.00
8 1.00
9 1.00
10 1.00
11 1.00
12 1.00
13 1.00
14 1.00
15 1.00
16 1.00
17 1.00
18 1.00
19 1.00
20 1.00
21 1.00
22 1.00
23 1.00
24 1.00
25 1.00
26 1.00
27 1.00
28 1.00
29 1.00
30 1.00
31 1.00
32 1.00
33 1.00
34 1.00
35 1.00
36 1.00
37 1.00
38 1.00
39 1.00
40 1.00
41 1.00
42 1.00

