#	Created by:	Discovery Studio
#	Creation time:	2024-01-11T11:02:40Z

@<SCITEGIC>ROOT_PROPERTY
Ligand:MaximumNumberOfAtoms
SciTegic.value.IntegerValue
100

@<SCITEGIC>ROOT_PROPERTY
Ligand:HydrogenAtomsCountTowardsMaximum
SciTegic.value.BooleanValue
FALSE

@<TRIPOS>MOLECULE
PENICILLIN
   20    20     1 0 0
PROTEIN
USER_CHARGES


@<TRIPOS>ATOM
      1 O01          -0.064105   -3.151095   -0.923035 O.2      1 UNK0      -0.1533
      2 C02          -1.107269    0.857265   -0.609795 C.3      1 UNK0       0.1389
      3 N03          -1.015693   -0.518821   -0.077785 N.am     1 UNK0      -0.2538
      4 C04           0.276329   -1.089770    0.423189 C.3      1 UNK0       0.1316
      5 C05           1.385768    0.000227    0.142691 C.3      1 UNK0       0.0326
      6 C06          -2.165870   -0.556967    0.601588 C.2      1 UNK0       0.2058
      7 C07           2.483869    0.049054    1.287791 C.3      1 UNK0       0.0246
      8 C08           2.060841   -0.180525   -1.287177 C.3      1 UNK0       0.0246
      9 C09           0.527285   -2.603859    0.044653 C.2      1 UNK0       0.2619
     10 S10           0.395513    1.585067    0.172911 S.3      1 UNK0      -0.1328
     11 O11          -2.712787   -1.377052    1.370006 O.2      1 UNK0      -0.1642
     12 C12          -3.212313    3.105636    1.059350 C.2      1 UNK0       0.1792
     13 O13          -3.688303    3.488783   -0.047247 O.2      1 UNK0      -0.1667
     14 N14          -2.630229    1.875453    1.235361 N.am     1 UNK0      -0.2836
     15 C16          -3.237045    3.959446    2.258931 C.3      1 UNK0       0.0559
     16 H15          -2.289319    1.643300    2.070197 H        1 UNK0       0.1252
     17 O17           1.383811   -3.299257    0.793519 O.3      1 UNK0      -0.3667
     18 H18           1.422144   -4.204885    0.443973 H        1 UNK0       0.2134
     19 C19          -2.426868    0.758926    0.079059 C.3      1 UNK0       0.1273
     20 C40          -2.689430   -2.876957    1.130967 C.3      1 UNK0       0.0000
@<TRIPOS>BOND
     1    1    9 2
     2    2   10 1
     3    2    3 1
     4    2   19 1
     5    3    4 1
     6    3    6 1
     7    4    5 1
     8    4    9 1
     9    6   19 1
    10    6   11 2
    11    7    5 1
    12    8    5 1
    13    9   17 1
    14   10    5 1
    15   12   15 1
    16   12   14 1
    17   12   13 2
    18   14   19 1
    19   14   16 1
    20   17   18 1
@<TRIPOS>SUBSTRUCTURE
1 UNK0 1 RESIDUE 1 A UNK
@<SCITEGIC>ATOM_PROPERTY
Formal Charge
SciTegic.value.StringValue
1 0
2 0
3 0
4 0
5 0
6 0
7 0
8 0
9 0
10 0
11 0
12 0
13 0
14 0
15 0
16 0
17 0
18 0
19 0
20 0

@<SCITEGIC>ATOM_PROPERTY
pdb_tempFactor
SciTegic.value.DoubleValue
1 0.00
2 0.00
3 0.00
4 0.00
5 0.00
6 0.00
7 0.00
8 0.00
9 0.00
10 0.00
11 0.00
12 0.00
13 0.00
14 0.00
15 0.00
16 0.00
17 0.00
18 0.00
19 0.00
20 0.00

@<SCITEGIC>ATOM_PROPERTY
pdb_occupancy
SciTegic.value.DoubleValue
1 1.00
2 1.00
3 1.00
4 1.00
5 1.00
6 1.00
7 1.00
8 1.00
9 1.00
10 1.00
11 1.00
12 1.00
13 1.00
14 1.00
15 1.00
16 1.00
17 1.00
18 1.00
19 1.00
20 1.00

#	Created by:	Discovery Studio
#	Creation time:	2024-01-11T11:02:40Z

@<SCITEGIC>ROOT_PROPERTY
Ligand:MaximumNumberOfAtoms
SciTegic.value.IntegerValue
100

@<SCITEGIC>ROOT_PROPERTY
Ligand:HydrogenAtomsCountTowardsMaximum
SciTegic.value.BooleanValue
FALSE

@<TRIPOS>MOLECULE
CEPHALOSPORIN
   20    20     1 0 0
PROTEIN
USER_CHARGES


@<TRIPOS>ATOM
      1 O01           6.572575   -3.127870   -0.126971 O.2      1 UNK0      -0.1533
      2 C02           5.144586   -0.306665    0.696983 C.2      1 UNK0       0.2058
      3 N03           6.249130   -0.224081   -0.041644 N.am     1 UNK0      -0.2549
      4 C04           6.025049    1.077945   -0.660359 C.3      1 UNK0       0.1383
      5 N05           4.429684    2.101465    1.136949 N.am     1 UNK0      -0.2836
      6 S06           7.283965    2.232103   -0.054174 S.3      1 UNK0      -0.1405
      7 C07           8.777811    1.267676   -0.515736 C.3      1 UNK0       0.0760
      8 C08           8.704185   -0.244909   -0.195481 C.2      1 UNK0       0.0183
      9 C09           7.545868   -0.918468    0.047193 C.2      1 UNK0       0.1196
     10 C10           7.421659   -2.396234    0.389874 C.2      1 UNK0       0.2608
     11 C11           4.631578    1.030691    0.102837 C.3      1 UNK0       0.1273
     12 O12           8.276909   -2.910991    1.276430 O.3      1 UNK0      -0.3667
     13 C14          10.129647   -0.824522   -0.214963 C.3      1 UNK0       0.0102
     14 O15           4.692551   -1.093364    1.541524 O.2      1 UNK0      -0.1642
     15 H13           8.113355   -3.850283    1.417860 H        1 UNK0       0.2134
     16 C17           3.114590    2.115178    1.547223 C.2      1 UNK0       0.1792
     17 O18           2.314062    1.318010    1.067287 O.2      1 UNK0      -0.1667
     18 C19           2.706779    3.099687    2.563166 C.3      1 UNK0       0.0559
     19 C38           5.514943   -3.634623    1.133137 C.3      1 UNK0       0.0000
     20 H39           5.143768    2.713384    1.477006 H        1 UNK0       0.0000
@<TRIPOS>BOND
     1    1   10 2
     2    2   11 1
     3    2    3 1
     4    2   14 2
     5    3    4 1
     6    3    9 1
     7    4   11 1
     8    4    6 1
     9    5   11 1
    10    5   16 1
    11    6    7 1
    12    7    8 1
    13    8   13 1
    14    8    9 2
    15    9   10 1
    16   10   12 1
    17   12   15 1
    18   16   18 1
    19   16   17 2
    20    5   20 1
@<TRIPOS>SUBSTRUCTURE
1 UNK0 1 RESIDUE 1 A UNK
@<SCITEGIC>ATOM_PROPERTY
Formal Charge
SciTegic.value.StringValue
1 0
2 0
3 0
4 0
5 0
6 0
7 0
8 0
9 0
10 0
11 0
12 0
13 0
14 0
15 0
16 0
17 0
18 0
19 0
20 0

@<SCITEGIC>ATOM_PROPERTY
pdb_tempFactor
SciTegic.value.DoubleValue
1 0.00
2 0.00
3 0.00
4 0.00
5 0.00
6 0.00
7 0.00
8 0.00
9 0.00
10 0.00
11 0.00
12 0.00
13 0.00
14 0.00
15 0.00
16 0.00
17 0.00
18 0.00
19 0.00
20 0.00

@<SCITEGIC>ATOM_PROPERTY
pdb_occupancy
SciTegic.value.DoubleValue
1 1.00
2 1.00
3 1.00
4 1.00
5 1.00
6 1.00
7 1.00
8 1.00
9 1.00
10 1.00
11 1.00
12 1.00
13 1.00
14 1.00
15 1.00
16 1.00
17 1.00
18 1.00
19 1.00
20 1.00

