#	Created by:	Discovery Studio
#	Creation time:	2024-01-11T11:02:39Z

@<SCITEGIC>ROOT_PROPERTY
Ligand:MaximumNumberOfAtoms
SciTegic.value.IntegerValue
100

@<SCITEGIC>ROOT_PROPERTY
Ligand:HydrogenAtomsCountTowardsMaximum
SciTegic.value.BooleanValue
FALSE

@<TRIPOS>MOLECULE
tolrestat
   38    39     0 0 0
SMALL
USER_CHARGES


@<TRIPOS>ATOM
      1 C1            9.105900    3.731900   -0.545100 C.ar     1 SUBUNIT   -0.0082
      2 C2            8.014900    4.123600   -1.336300 C.ar     1 SUBUNIT   -0.0071
      3 C3            8.146900    5.170300   -2.273200 C.ar     1 SUBUNIT    0.0454
      4 C4            9.375500    5.846400   -2.436700 C.ar     1 SUBUNIT   -0.1276
      5 C5           10.442500    5.428700   -1.631500 C.ar     1 SUBUNIT   -0.0791
      6 C6           10.320100    4.398100   -0.706100 C.ar     1 SUBUNIT   -0.0552
      7 C7            6.680600    2.394500   -0.222500 C.ar     1 SUBUNIT   -0.0609
      8 C8            6.809900    3.429600   -1.148000 C.ar     1 SUBUNIT   -0.0538
      9 C9            8.980500    2.692300    0.386500 C.ar     1 SUBUNIT    0.0116
     10 C10           7.771600    2.018800    0.553800 C.ar     1 SUBUNIT   -0.0519
     11 C11           6.942700    5.570700   -3.116700 C.3      1 SUBUNIT    0.4150
     12 F12           7.159500    6.611000   -4.015200 F        1 SUBUNIT   -0.1662
     13 F13           6.501300    4.492900   -3.883500 F        1 SUBUNIT   -0.1662
     14 F14           5.889800    5.985600   -2.301800 F        1 SUBUNIT   -0.1662
     15 O15           9.492400    6.865000   -3.352400 O.3      1 SUBUNIT    1.3349
     16 C16          10.731400    7.533000   -3.499700 C.3      1 SUBUNIT   -0.1450
     17 C17          10.123300    2.265200    1.227100 C.2      1 SUBUNIT    0.0898
     18 N18          11.010700    1.343100    0.785400 N.am     1 SUBUNIT   -0.2630
     19 C19          10.778200    0.752000   -0.535000 C.3      1 SUBUNIT   -0.0073
     20 C20          12.121900    0.904300    1.643800 C.3      1 SUBUNIT    0.0422
     21 C21          11.809182   -0.386036    2.383630 C.2      1 SUBUNIT    0.0671
     22 O22          10.967168   -1.152470    1.668102 O.3      1 SUBUNIT    1.3514
     23 O23          12.256123   -0.710373    3.462256 O.2      1 SUBUNIT   -0.3227
     24 H24          10.797270   -1.932470    2.223792 H        1 SUBUNIT   -0.1357
     25 S25          10.185500    2.956800    2.688800 S.2      1 SUBUNIT   -0.0661
     26 H26          11.433300    5.906200   -1.701000 H        1 SUBUNIT    0.0606
     27 H27          11.210000    4.128800   -0.111800 H        1 SUBUNIT    0.0629
     28 H28           5.715600    1.870700   -0.103300 H        1 SUBUNIT    0.0623
     29 H29           5.901500    3.665900   -1.722500 H        1 SUBUNIT    0.0629
     30 H30           7.675400    1.198000    1.286100 H        1 SUBUNIT    0.0630
     31 H33          10.603200    8.315200   -4.285900 H        1 SUBUNIT   -0.0020
     32 H34          11.014200    8.043200   -2.547000 H        1 SUBUNIT   -0.0020
     33 H35          11.518900    6.820900   -3.846400 H        1 SUBUNIT   -0.0020
     34 H36          11.544200   -0.021500   -0.770800 H        1 SUBUNIT    0.0399
     35 H37           9.785600    0.245800   -0.570400 H        1 SUBUNIT    0.0399
     36 H38          10.838700    1.529000   -1.331900 H        1 SUBUNIT    0.0399
     37 H39          13.029734    0.711573    1.025972 H        1 SUBUNIT    0.0496
     38 H40          12.415243    1.713012    2.354217 H        1 SUBUNIT    0.0496
@<TRIPOS>BOND
     1    1    2 ar
     2    1    6 ar
     3    1    9 ar
     4    2    3 ar
     5    2    8 ar
     6    3    4 ar
     7    3   11 1
     8    4    5 ar
     9    4   15 1
    10    5    6 ar
    11    5   26 1
    12    6   27 1
    13    7    8 ar
    14    7   10 ar
    15    7   28 1
    16    8   29 1
    17    9   10 ar
    18    9   17 1
    19   10   30 1
    20   11   12 1
    21   11   13 1
    22   11   14 1
    23   15   16 1
    24   16   31 1
    25   16   32 1
    26   16   33 1
    27   17   18 1
    28   17   25 2
    29   18   19 1
    30   18   20 1
    31   19   34 1
    32   19   35 1
    33   19   36 1
    34   20   21 1
    35   20   37 1
    36   20   38 1
    37   21   22 1
    38   21   23 2
    39   22   24 1
@<SCITEGIC>ATOM_PROPERTY
Formal Charge
SciTegic.value.StringValue
1 0
2 0
3 0
4 0
5 0
6 0
7 0
8 0
9 0
10 0
11 0
12 0
13 0
14 0
15 0
16 0
17 0
18 0
19 0
20 0
21 0
22 0
23 0
24 0
25 0
26 0
27 0
28 0
29 0
30 0
31 0
32 0
33 0
34 0
35 0
36 0
37 0
38 0

@<SCITEGIC>ATOM_PROPERTY
pdb_tempFactor
SciTegic.value.DoubleValue
1 0.00
2 0.00
3 0.00
4 0.00
5 0.00
6 0.00
7 0.00
8 0.00
9 0.00
10 0.00
11 0.00
12 0.00
13 0.00
14 0.00
15 0.00
16 0.00
17 0.00
18 0.00
19 0.00
20 0.00
21 0.00
22 0.00
23 0.00
24 0.00
25 0.00
26 0.00
27 0.00
28 0.00
29 0.00
30 0.00
31 0.00
32 0.00
33 0.00
34 0.00
35 0.00
36 0.00
37 0.00
38 0.00

@<SCITEGIC>ATOM_PROPERTY
pdb_occupancy
SciTegic.value.DoubleValue
1 1.00
2 1.00
3 1.00
4 1.00
5 1.00
6 1.00
7 1.00
8 1.00
9 1.00
10 1.00
11 1.00
12 1.00
13 1.00
14 1.00
15 1.00
16 1.00
17 1.00
18 1.00
19 1.00
20 1.00
21 1.00
22 1.00
23 1.00
24 1.00
25 1.00
26 1.00
27 1.00
28 1.00
29 1.00
30 1.00
31 1.00
32 1.00
33 1.00
34 1.00
35 1.00
36 1.00
37 1.00
38 1.00

#	Created by:	Discovery Studio
#	Creation time:	2024-01-11T11:02:39Z

@<SCITEGIC>ROOT_PROPERTY
Ligand:MaximumNumberOfAtoms
SciTegic.value.IntegerValue
100

@<SCITEGIC>ROOT_PROPERTY
Ligand:HydrogenAtomsCountTowardsMaximum
SciTegic.value.BooleanValue
FALSE

@<TRIPOS>MOLECULE
ICI105552
   37    39     0 0 0
SMALL
USER_CHARGES


@<TRIPOS>ATOM
      1 C1            9.072527    2.780024    0.331454 C.ar     1 SUBUNIT   -0.0355
      2 C2            9.079627    3.846424   -0.591546 C.ar     1 SUBUNIT   -0.0776
      3 C3            7.887827    4.098024   -1.290146 C.ar     1 SUBUNIT   -0.0752
      4 C4            6.736827    3.332524   -1.104846 C.ar     1 SUBUNIT   -0.0638
      5 C5            6.748527    2.275924   -0.200446 C.ar     1 SUBUNIT   -0.0618
      6 C6            7.916227    2.009624    0.510554 C.ar     1 SUBUNIT   -0.0563
      7 C7           11.340700    4.355800   -0.063700 C.2      1 SUBUNIT    0.1221
      8 C8           10.261600    2.510200    1.076900 C.2      1 SUBUNIT   -0.0354
      9 C9           11.385700    3.313600    0.864600 C.2      1 SUBUNIT   -0.0322
     10 O10          12.345100    5.040200   -0.196700 O.2      1 SUBUNIT   -0.3152
     11 C11          10.342400    5.716000   -1.710400 C.3      1 SUBUNIT   -0.0489
     12 C12          10.243200    7.041500   -0.984100 C.ar     1 SUBUNIT   -0.0615
     13 C13          11.273000    7.982400   -1.071600 C.ar     1 SUBUNIT   -0.0593
     14 C14          11.182700    9.200400   -0.397400 C.ar     1 SUBUNIT   -0.0418
     15 C15          10.059700    9.502100    0.377300 C.ar     1 SUBUNIT    0.0592
     16 C16           9.020700    8.569000    0.470800 C.ar     1 SUBUNIT    0.0594
     17 C17           9.121500    7.351700   -0.209600 C.ar     1 SUBUNIT   -0.0406
     18 Cl18         10.024600   11.034800    1.182000 Cl       1 SUBUNIT   -0.0827
     19 Cl19          7.588800    8.849300    1.403600 Cl       1 SUBUNIT   -0.0827
     20 C20          10.359200    1.385800    2.090600 C.3      1 SUBUNIT    0.0117
     21 C21          10.417200    0.028100    1.414800 C.2      1 SUBUNIT    0.0568
     22 O22          10.597527   -0.954076    2.314653 O.3      1 SUBUNIT    1.3507
     23 O23          10.266427   -0.191276    0.217454 O.2      1 SUBUNIT   -0.3238
     24 H24          10.632029   -1.835715    1.844081 H        1 SUBUNIT   -0.1358
     25 H25          12.315800    3.130600    1.431400 H        1 SUBUNIT    0.0642
     26 N26          10.230400    4.592600   -0.772700 N.am     1 SUBUNIT    0.3678
     27 H27           7.863464    4.853798   -1.944525 H        1 SUBUNIT    0.0606
     28 H28           5.906107    3.542577   -1.620387 H        1 SUBUNIT    0.0622
     29 H29           5.931356    1.716200   -0.062826 H        1 SUBUNIT    0.0623
     30 H30           7.929508    1.251991    1.163099 H        1 SUBUNIT    0.0628
     31 H31          11.300400    5.643000   -2.279100 H        1 SUBUNIT    0.0123
     32 H32           9.597400    5.692700   -2.535200 H        1 SUBUNIT    0.0123
     33 H33          12.171900    7.769000   -1.675600 H        1 SUBUNIT    0.0625
     34 H34          12.015200    9.921200   -0.487000 H        1 SUBUNIT    0.0639
     35 H35           8.302400    6.616800   -0.135800 H        1 SUBUNIT    0.0641
     36 H36          11.284000    1.478200    2.707700 H        1 SUBUNIT    0.0376
     37 H37           9.485927    1.448424    2.804254 H        1 SUBUNIT    0.0376
@<TRIPOS>BOND
     1    1    2 ar
     2    1    6 ar
     3    1    8 1
     4    2    3 ar
     5    2   26 1
     6    3    4 ar
     7    3   27 1
     8    4    5 ar
     9    4   28 1
    10    5    6 ar
    11    5   29 1
    12    6   30 1
    13    7   26 1
    14    7    9 1
    15    7   10 2
    16    8    9 2
    17    8   20 1
    18    9   25 1
    19   11   26 1
    20   11   12 1
    21   11   31 1
    22   11   32 1
    23   12   13 ar
    24   12   17 ar
    25   13   14 ar
    26   13   33 1
    27   14   15 ar
    28   14   34 1
    29   15   16 ar
    30   15   18 1
    31   16   17 ar
    32   16   19 1
    33   17   35 1
    34   20   21 1
    35   20   36 1
    36   20   37 1
    37   21   22 1
    38   21   23 2
    39   22   24 1
@<SCITEGIC>ATOM_PROPERTY
Formal Charge
SciTegic.value.StringValue
1 0
2 0
3 0
4 0
5 0
6 0
7 0
8 0
9 0
10 0
11 0
12 0
13 0
14 0
15 0
16 0
17 0
18 0
19 0
20 0
21 0
22 0
23 0
24 0
25 0
26 0
27 0
28 0
29 0
30 0
31 0
32 0
33 0
34 0
35 0
36 0
37 0

@<SCITEGIC>ATOM_PROPERTY
pdb_tempFactor
SciTegic.value.DoubleValue
1 0.00
2 0.00
3 0.00
4 0.00
5 0.00
6 0.00
7 0.00
8 0.00
9 0.00
10 0.00
11 0.00
12 0.00
13 0.00
14 0.00
15 0.00
16 0.00
17 0.00
18 0.00
19 0.00
20 0.00
21 0.00
22 0.00
23 0.00
24 0.00
25 0.00
26 0.00
27 0.00
28 0.00
29 0.00
30 0.00
31 0.00
32 0.00
33 0.00
34 0.00
35 0.00
36 0.00
37 0.00

@<SCITEGIC>ATOM_PROPERTY
pdb_occupancy
SciTegic.value.DoubleValue
1 1.00
2 1.00
3 1.00
4 1.00
5 1.00
6 1.00
7 1.00
8 1.00
9 1.00
10 1.00
11 1.00
12 1.00
13 1.00
14 1.00
15 1.00
16 1.00
17 1.00
18 1.00
19 1.00
20 1.00
21 1.00
22 1.00
23 1.00
24 1.00
25 1.00
26 1.00
27 1.00
28 1.00
29 1.00
30 1.00
31 1.00
32 1.00
33 1.00
34 1.00
35 1.00
36 1.00
37 1.00

#	Created by:	Discovery Studio
#	Creation time:	2024-01-11T11:02:39Z

@<SCITEGIC>ROOT_PROPERTY
Ligand:MaximumNumberOfAtoms
SciTegic.value.IntegerValue
100

@<SCITEGIC>ROOT_PROPERTY
Ligand:HydrogenAtomsCountTowardsMaximum
SciTegic.value.BooleanValue
FALSE

@<TRIPOS>MOLECULE
AY31358
   38    40     0 0 0
SMALL
USER_CHARGES


@<TRIPOS>ATOM
      1 C1           10.129400    4.711000   -0.811100 C.ar     1 SUBUNIT    0.0291
      2 C2            9.028800    3.882800   -0.604500 C.ar     1 SUBUNIT    0.0008
      3 C3            9.179500    2.754800    0.222800 C.ar     1 SUBUNIT   -0.0130
      4 C4           10.411700    2.438400    0.849000 C.2      1 SUBUNIT   -0.0279
      5 C5           11.501700    3.299200    0.616600 C.2      1 SUBUNIT    0.0012
      6 C6           11.357200    4.425300   -0.207600 C.2      1 SUBUNIT    0.1891
      7 C7            7.711300    5.364000   -2.061500 C.ar     1 SUBUNIT    0.0455
      8 C8            7.820400    4.223100   -1.238900 C.ar     1 SUBUNIT   -0.0064
      9 C9           10.013900    5.838600   -1.626900 C.ar     1 SUBUNIT   -0.0678
     10 C10           8.825300    6.201500   -2.270500 C.ar     1 SUBUNIT   -0.1269
     11 C11           6.722700    3.382100   -1.022500 C.ar     1 SUBUNIT   -0.0538
     12 C12           6.827900    2.257500   -0.212800 C.ar     1 SUBUNIT   -0.0610
     13 C13           8.040300    1.954400    0.397200 C.ar     1 SUBUNIT   -0.0540
     14 H14           5.733000    3.557700   -1.470900 H        1 SUBUNIT    0.0629
     15 H15           8.026100    1.045500    1.018800 H        1 SUBUNIT    0.0629
     16 H16          10.902600    6.471900   -1.769500 H        1 SUBUNIT    0.0614
     17 H17           5.949300    1.606300   -0.054800 H        1 SUBUNIT    0.0623
     18 O18           8.717300    7.313000   -3.072800 O.3      1 SUBUNIT    1.3349
     19 C21           6.380000    5.696500   -2.731100 C.3      1 SUBUNIT    0.4150
     20 F22           5.387900    5.886900   -1.768800 F        1 SUBUNIT   -0.1662
     21 F23           6.361300    6.839100   -3.524600 F        1 SUBUNIT   -0.1662
     22 F24           5.981600    4.650400   -3.563800 F        1 SUBUNIT   -0.1662
     23 O25          12.298400    5.163700   -0.405000 O.2      1 SUBUNIT   -0.2889
     24 C26          12.875100    3.093400    1.213500 C.3      1 SUBUNIT   -0.0356
     25 H27          13.631400    3.861500    0.934700 H        1 SUBUNIT    0.0281
     26 H28          12.818200    3.153900    2.324300 H        1 SUBUNIT    0.0281
     27 H29          13.307600    2.135200    0.846000 H        1 SUBUNIT    0.0281
     28 C30          10.417300    1.175700    1.721700 C.3      1 SUBUNIT    0.0121
     29 H31          11.155200    1.385600    2.532700 H        1 SUBUNIT    0.0376
     30 H32           9.384200    1.105700    2.138400 H        1 SUBUNIT    0.0376
     31 C33          10.725800   -0.273200    1.363800 C.2      1 SUBUNIT    0.0568
     32 O34          10.595500   -1.022300    2.485400 O.3      1 SUBUNIT    1.3507
     33 O35          11.041000   -0.794200    0.316600 O.2      1 SUBUNIT   -0.3238
     34 H36          10.819100   -1.885200    2.094500 H        1 SUBUNIT   -0.1358
     35 C37           9.840600    8.148100   -3.280600 C.3      1 SUBUNIT   -0.1450
     36 H38           9.523800    8.977100   -3.958300 H        1 SUBUNIT   -0.0020
     37 H39          10.174300    8.599500   -2.314500 H        1 SUBUNIT   -0.0020
     38 H40          10.658900    7.581000   -3.787300 H        1 SUBUNIT   -0.0020
@<TRIPOS>BOND
     1    1    2 ar
     2    1    6 1
     3    1    9 ar
     4    2    3 ar
     5    2    8 ar
     6    3    4 1
     7    3   13 ar
     8    4    5 2
     9    4   28 1
    10    5    6 1
    11    5   24 1
    12    6   23 2
    13    7    8 ar
    14    7   10 ar
    15    7   19 1
    16    8   11 ar
    17    9   10 ar
    18    9   16 1
    19   10   18 1
    20   11   12 ar
    21   11   14 1
    22   12   17 1
    23   12   13 ar
    24   13   15 1
    25   18   35 1
    26   19   20 1
    27   19   21 1
    28   19   22 1
    29   24   25 1
    30   24   26 1
    31   24   27 1
    32   28   31 1
    33   28   29 1
    34   28   30 1
    35   31   32 1
    36   31   33 2
    37   32   34 1
    38   35   36 1
    39   35   37 1
    40   35   38 1
@<SCITEGIC>ATOM_PROPERTY
Formal Charge
SciTegic.value.StringValue
1 0
2 0
3 0
4 0
5 0
6 0
7 0
8 0
9 0
10 0
11 0
12 0
13 0
14 0
15 0
16 0
17 0
18 0
19 0
20 0
21 0
22 0
23 0
24 0
25 0
26 0
27 0
28 0
29 0
30 0
31 0
32 0
33 0
34 0
35 0
36 0
37 0
38 0

@<SCITEGIC>ATOM_PROPERTY
pdb_tempFactor
SciTegic.value.DoubleValue
1 0.00
2 0.00
3 0.00
4 0.00
5 0.00
6 0.00
7 0.00
8 0.00
9 0.00
10 0.00
11 0.00
12 0.00
13 0.00
14 0.00
15 0.00
16 0.00
17 0.00
18 0.00
19 0.00
20 0.00
21 0.00
22 0.00
23 0.00
24 0.00
25 0.00
26 0.00
27 0.00
28 0.00
29 0.00
30 0.00
31 0.00
32 0.00
33 0.00
34 0.00
35 0.00
36 0.00
37 0.00
38 0.00

@<SCITEGIC>ATOM_PROPERTY
pdb_occupancy
SciTegic.value.DoubleValue
1 1.00
2 1.00
3 1.00
4 1.00
5 1.00
6 1.00
7 1.00
8 1.00
9 1.00
10 1.00
11 1.00
12 1.00
13 1.00
14 1.00
15 1.00
16 1.00
17 1.00
18 1.00
19 1.00
20 1.00
21 1.00
22 1.00
23 1.00
24 1.00
25 1.00
26 1.00
27 1.00
28 1.00
29 1.00
30 1.00
31 1.00
32 1.00
33 1.00
34 1.00
35 1.00
36 1.00
37 1.00
38 1.00

#	Created by:	Discovery Studio
#	Creation time:	2024-01-11T11:02:39Z

@<SCITEGIC>ROOT_PROPERTY
Ligand:MaximumNumberOfAtoms
SciTegic.value.IntegerValue
100

@<SCITEGIC>ROOT_PROPERTY
Ligand:HydrogenAtomsCountTowardsMaximum
SciTegic.value.BooleanValue
FALSE

@<TRIPOS>MOLECULE
pharmaco
   14    13     0 0 0
SMALL
USER_CHARGES


@<TRIPOS>ATOM
      1 H24          10.650238   -1.950722    2.303010 H        1 SUBUNIT   -0.1358
      2 O22          10.939532   -1.078840    2.698046 O.3      1 SUBUNIT    1.3507
      3 C6            7.916227    2.009624    0.510554 C.ar     1 SUBUNIT   -0.0563
      4 C5            6.748527    2.275924   -0.200446 C.ar     1 SUBUNIT   -0.0618
      5 C4            6.736827    3.332524   -1.104846 C.ar     1 SUBUNIT   -0.0638
      6 C3            7.887827    4.098024   -1.290146 C.ar     1 SUBUNIT   -0.0752
      7 C2            9.079627    3.846424   -0.591546 C.ar     1 SUBUNIT   -0.0776
      8 C1            9.072527    2.780024    0.331454 C.ar     1 SUBUNIT   -0.0355
      9 H16           7.929508    1.251991    1.163099 H        1 SUBUNIT    0.0000
     10 H18           5.931356    1.716200   -0.062826 H        1 SUBUNIT    0.0000
     11 H20           5.906107    3.542577   -1.620387 H        1 SUBUNIT    0.0000
     12 H22           7.863464    4.853798   -1.944525 H        1 SUBUNIT    0.0000
     13 H24           9.898752    4.399931   -0.742094 H        1 SUBUNIT    0.0000
     14 H26           9.895851    2.573088    0.859955 H        1 SUBUNIT    0.0000
@<TRIPOS>BOND
     1    2    1 1
     2    4    3 ar
     3    5    4 ar
     4    6    5 ar
     5    7    6 ar
     6    8    3 ar
     7    8    7 ar
     8    3    9 1
     9    4   10 1
    10    5   11 1
    11    6   12 1
    12    7   13 1
    13    8   14 1
@<SCITEGIC>ATOM_PROPERTY
Formal Charge
SciTegic.value.StringValue
1 0
2 0
3 0
4 0
5 0
6 0
7 0
8 0
9 0
10 0
11 0
12 0
13 0
14 0

@<SCITEGIC>ATOM_PROPERTY
pdb_tempFactor
SciTegic.value.DoubleValue
1 0.00
2 0.00
3 0.00
4 0.00
5 0.00
6 0.00
7 0.00
8 0.00
9 0.00
10 0.00
11 0.00
12 0.00
13 0.00
14 0.00

@<SCITEGIC>ATOM_PROPERTY
pdb_occupancy
SciTegic.value.DoubleValue
1 1.00
2 1.00
3 1.00
4 1.00
5 1.00
6 1.00
7 1.00
8 1.00
9 1.00
10 1.00
11 1.00
12 1.00
13 1.00
14 1.00

