#	Created by:	Discovery Studio
#	Creation time:	2024-01-11T11:02:43Z

@<SCITEGIC>ROOT_PROPERTY
Ligand:MaximumNumberOfAtoms
SciTegic.value.IntegerValue
100

@<SCITEGIC>ROOT_PROPERTY
Ligand:HydrogenAtomsCountTowardsMaximum
SciTegic.value.BooleanValue
FALSE

@<TRIPOS>MOLECULE
methoxypenicillin
   35    36     0 0 0
SMALL
USER_CHARGES


@<TRIPOS>ATOM
      1 O14         -23.381683   13.212713   -1.033207 O.2      1 SUBUNIT   -0.2645
      2 C15         -19.972584   10.835802   -1.065007 C.3      1 SUBUNIT    0.1680
      3 N16         -20.935783   11.739595   -0.398707 N.am     1 SUBUNIT   -0.2709
      4 C17         -22.283484   11.265197    0.055093 C.3      1 SUBUNIT    0.1896
      5 C18         -22.416883    9.765102   -0.427407 C.3      1 SUBUNIT    0.0405
      6 C19         -20.082483   12.421797    0.371593 C.2      1 SUBUNIT    0.2422
      7 C20         -23.207584    8.866002    0.614793 C.3      1 SUBUNIT    0.0253
      8 C21         -23.058683    9.654601   -1.879907 C.3      1 SUBUNIT    0.0253
      9 C22         -23.464783   12.290496   -0.179907 C.2      1 SUBUNIT    0.2805
     10 S23         -20.631485    9.212401   -0.486607 S.3      1 SUBUNIT   -0.1276
     11 O24         -20.196184   13.290214    1.263993 O.2      1 SUBUNIT   -0.2748
     12 C25         -16.896181   10.288405    0.520793 C.2      1 SUBUNIT    0.2094
     13 O26         -16.294678   10.454904   -0.578907 O.2      1 SUBUNIT   -0.2780
     14 N27         -18.138384   10.812201    0.778793 N.am     1 SUBUNIT   -0.2993
     15 H28         -18.541084   10.654603    1.604693 H        1 SUBUNIT    0.1505
     16 C29         -16.310379    9.503801    1.621293 C.3      1 SUBUNIT    0.1111
     17 O30         -24.561184   12.158095    0.568393 O.3      1 SUBUNIT   -0.3302
     18 H31         -25.184483   12.860304    0.314893 H        1 SUBUNIT    0.2214
     19 C32         -19.031183   11.672396   -0.264907 C.3      1 SUBUNIT    0.1359
     20 O59         -18.049583   12.497100   -1.125207 O.3      1 SUBUNIT   -0.0321
     21 C6000       -16.902935   12.957088   -0.274556 C.3      1 SUBUNIT    0.0259
     22 H44         -19.700151   10.625132   -2.003835 H        1 SUBUNIT    0.0000
     23 H46         -22.372772   11.244018    1.050873 H        1 SUBUNIT    0.0000
     24 H48         -23.267494    7.929379    0.269733 H        1 SUBUNIT    0.0000
     25 H50         -24.128925    9.233650    0.741366 H        1 SUBUNIT    0.0000
     26 H52         -22.725147    8.867778    1.490753 H        1 SUBUNIT    0.0000
     27 H54         -23.123867    8.692272   -2.143711 H        1 SUBUNIT    0.0000
     28 H56         -22.483288   10.141614   -2.537017 H        1 SUBUNIT    0.0000
     29 H58         -23.972647   10.060401   -1.872752 H        1 SUBUNIT    0.0000
     30 H60         -16.941391    9.493937    2.396950 H        1 SUBUNIT    0.0000
     31 H62         -15.444305    9.917512    1.902033 H        1 SUBUNIT    0.0000
     32 H64         -16.147203    8.566569    1.313032 H        1 SUBUNIT    0.0000
     33 H66         -16.267191   13.491217   -0.831738 H        1 SUBUNIT    0.0000
     34 H68         -16.427717   12.162402    0.103198 H        1 SUBUNIT    0.0000
     35 H70         -17.248396   13.524732    0.472768 H        1 SUBUNIT    0.0000
@<TRIPOS>BOND
     1    1    9 2
     2    2   10 1
     3    2    3 1
     4    2   19 1
     5    3    4 1
     6    3    6 1
     7    4    5 1
     8    4    9 1
     9    5   10 1
    10    5    7 1
    11    5    8 1
    12    6   19 1
    13    6   11 2
    14    9   17 1
    15   12   13 2
    16   12   16 1
    17   12   14 1
    18   14   19 1
    19   14   15 1
    20   17   18 1
    21   19   20 1
    22   20   21 1
    23    2   22 1
    24    4   23 1
    25    7   24 1
    26    7   25 1
    27    7   26 1
    28    8   27 1
    29    8   28 1
    30    8   29 1
    31   16   30 1
    32   16   31 1
    33   16   32 1
    34   21   33 1
    35   21   34 1
    36   21   35 1
@<SCITEGIC>ATOM_PROPERTY
Formal Charge
SciTegic.value.StringValue
1 0
2 0
3 0
4 0
5 0
6 0
7 0
8 0
9 0
10 0
11 0
12 0
13 0
14 0
15 0
16 0
17 0
18 0
19 0
20 0
21 0
22 0
23 0
24 0
25 0
26 0
27 0
28 0
29 0
30 0
31 0
32 0
33 0
34 0
35 0

@<SCITEGIC>ATOM_PROPERTY
pdb_tempFactor
SciTegic.value.DoubleValue
1 0.00
2 0.00
3 0.00
4 0.00
5 0.00
6 0.00
7 0.00
8 0.00
9 0.00
10 0.00
11 0.00
12 0.00
13 0.00
14 0.00
15 0.00
16 0.00
17 0.00
18 0.00
19 0.00
20 0.00
21 0.00
22 0.00
23 0.00
24 0.00
25 0.00
26 0.00
27 0.00
28 0.00
29 0.00
30 0.00
31 0.00
32 0.00
33 0.00
34 0.00
35 0.00

@<SCITEGIC>ATOM_PROPERTY
pdb_occupancy
SciTegic.value.DoubleValue
1 1.00
2 1.00
3 1.00
4 1.00
5 1.00
6 1.00
7 1.00
8 1.00
9 1.00
10 1.00
11 1.00
12 1.00
13 1.00
14 1.00
15 1.00
16 1.00
17 1.00
18 1.00
19 1.00
20 1.00
21 1.00
22 1.00
23 1.00
24 1.00
25 1.00
26 1.00
27 1.00
28 1.00
29 1.00
30 1.00
31 1.00
32 1.00
33 1.00
34 1.00
35 1.00

#	Created by:	Discovery Studio
#	Creation time:	2024-01-11T11:02:43Z

@<SCITEGIC>ROOT_PROPERTY
Ligand:MaximumNumberOfAtoms
SciTegic.value.IntegerValue
100

@<SCITEGIC>ROOT_PROPERTY
Ligand:HydrogenAtomsCountTowardsMaximum
SciTegic.value.BooleanValue
FALSE

@<TRIPOS>MOLECULE
methoxycephalosporin
   33    34     0 0 0
SMALL
USER_CHARGES


@<TRIPOS>ATOM
      1 C6200       -17.020226   13.345914   -0.227570 C.3      1 SUBUNIT    0.0259
      2 O61         -18.109144   12.752115   -1.071167 O.3      1 SUBUNIT   -0.0320
      3 C51         -16.220688    9.550591    1.080894 C.3      1 SUBUNIT    0.1111
      4 O50         -17.058796   10.283541   -1.000053 O.2      1 SUBUNIT   -0.2780
      5 C49         -17.143648   10.315471    0.224337 C.2      1 SUBUNIT    0.2094
      6 O47         -20.506824   13.225344    1.208771 O.2      1 SUBUNIT   -0.2744
      7 C46         -24.212727    9.407434   -0.897254 C.3      1 SUBUNIT    0.0425
      8 H45         -24.878967   12.924544    0.859214 H        1 SUBUNIT    0.2218
      9 O44         -24.351767   12.131410    0.709190 O.3      1 SUBUNIT   -0.3269
     10 C43         -18.945139   11.772879   -0.219184 C.3      1 SUBUNIT    0.1366
     11 C42         -23.333090   12.374454   -0.119814 C.2      1 SUBUNIT    0.3047
     12 C41         -22.400562   11.221384   -0.467571 C.2      1 SUBUNIT    0.1093
     13 C40         -22.776653    9.951385   -0.784213 C.2      1 SUBUNIT   -0.0354
     14 C39         -21.784559    8.807080   -1.105340 C.3      1 SUBUNIT    0.1040
     15 S38         -20.057575    9.095846   -0.546501 S.3      1 SUBUNIT   -0.1315
     16 N37         -18.118843   11.080761    0.827250 N.am     1 SUBUNIT   -0.2993
     17 C36         -19.894588   10.823757   -1.071921 C.3      1 SUBUNIT    0.1722
     18 N35         -20.975296   11.598608   -0.470841 N.am     1 SUBUNIT   -0.2488
     19 C34         -20.260712   12.378340    0.337910 C.2      1 SUBUNIT    0.2460
     20 O33         -23.185713   13.509006   -0.581766 O.2      1 SUBUNIT   -0.2594
     21 H42         -18.255882   11.162991    1.814397 H        1 SUBUNIT    0.0000
     22 H44         -16.478769   13.980145   -0.779381 H        1 SUBUNIT    0.0000
     23 H46         -16.429340   12.616312    0.116801 H        1 SUBUNIT    0.0000
     24 H48         -17.425604   13.837706    0.543056 H        1 SUBUNIT    0.0000
     25 H50         -16.450350    9.706338    2.041579 H        1 SUBUNIT    0.0000
     26 H52         -15.281783    9.849674    0.910417 H        1 SUBUNIT    0.0000
     27 H54         -16.302591    8.575870    0.872892 H        1 SUBUNIT    0.0000
     28 H56         -24.184328    8.438893   -1.144317 H        1 SUBUNIT    0.0000
     29 H58         -24.707907    9.916202   -1.601531 H        1 SUBUNIT    0.0000
     30 H60         -24.679890    9.513449   -0.019431 H        1 SUBUNIT    0.0000
     31 H62         -22.118240    7.974357   -0.663493 H        1 SUBUNIT    0.0000
     32 H64         -21.771912    8.676832   -2.096741 H        1 SUBUNIT    0.0000
     33 H66         -19.711012   10.686253   -2.045261 H        1 SUBUNIT    0.0000
@<TRIPOS>BOND
     1    2    1 1
     2    5    3 1
     3    5    4 2
     4    9    8 1
     5   10    2 1
     6   11    9 1
     7   12   11 1
     8   13    7 1
     9   13   12 2
    10   14   13 1
    11   15   14 1
    12   16    5 1
    13   16   10 1
    14   17   15 1
    15   17   10 1
    16   18   12 1
    17   18   17 1
    18   19    6 2
    19   19   18 1
    20   19   10 1
    21   20   11 2
    22   16   21 1
    23    1   22 1
    24    1   23 1
    25    1   24 1
    26    3   25 1
    27    3   26 1
    28    3   27 1
    29    7   28 1
    30    7   29 1
    31    7   30 1
    32   14   31 1
    33   14   32 1
    34   17   33 1
@<SCITEGIC>ATOM_PROPERTY
Formal Charge
SciTegic.value.StringValue
1 0
2 0
3 0
4 0
5 0
6 0
7 0
8 0
9 0
10 0
11 0
12 0
13 0
14 0
15 0
16 0
17 0
18 0
19 0
20 0
21 0
22 0
23 0
24 0
25 0
26 0
27 0
28 0
29 0
30 0
31 0
32 0
33 0

@<SCITEGIC>ATOM_PROPERTY
pdb_tempFactor
SciTegic.value.DoubleValue
1 0.00
2 0.00
3 0.00
4 0.00
5 0.00
6 0.00
7 0.00
8 0.00
9 0.00
10 0.00
11 0.00
12 0.00
13 0.00
14 0.00
15 0.00
16 0.00
17 0.00
18 0.00
19 0.00
20 0.00
21 0.00
22 0.00
23 0.00
24 0.00
25 0.00
26 0.00
27 0.00
28 0.00
29 0.00
30 0.00
31 0.00
32 0.00
33 0.00

@<SCITEGIC>ATOM_PROPERTY
pdb_occupancy
SciTegic.value.DoubleValue
1 1.00
2 1.00
3 1.00
4 1.00
5 1.00
6 1.00
7 1.00
8 1.00
9 1.00
10 1.00
11 1.00
12 1.00
13 1.00
14 1.00
15 1.00
16 1.00
17 1.00
18 1.00
19 1.00
20 1.00
21 1.00
22 1.00
23 1.00
24 1.00
25 1.00
26 1.00
27 1.00
28 1.00
29 1.00
30 1.00
31 1.00
32 1.00
33 1.00

#	Created by:	Discovery Studio
#	Creation time:	2024-01-11T11:02:43Z

@<SCITEGIC>ROOT_PROPERTY
Ligand:MaximumNumberOfAtoms
SciTegic.value.IntegerValue
100

@<SCITEGIC>ROOT_PROPERTY
Ligand:HydrogenAtomsCountTowardsMaximum
SciTegic.value.BooleanValue
FALSE

@<TRIPOS>MOLECULE
cephalosporin
   29    30     0 0 0
SMALL
USER_CHARGES


@<TRIPOS>ATOM
      1 C51         -16.220579    9.550815    1.080941 C.3      1 SUBUNIT    0.1111
      2 O50         -17.058599   10.283936   -0.999981 O.2      1 SUBUNIT   -0.2780
      3 C49         -17.143538   10.315720    0.224405 C.2      1 SUBUNIT    0.2094
      4 O47         -20.507010   13.225223    1.208933 O.2      1 SUBUNIT   -0.2744
      5 C46         -24.212467    9.407267   -0.897784 C.3      1 SUBUNIT    0.0425
      6 H45         -24.879103   12.924128    0.859035 H        1 SUBUNIT    0.2218
      7 O44         -24.351831   12.131049    0.708957 O.3      1 SUBUNIT   -0.3269
      8 C43         -18.945112   11.773039   -0.219078 C.3      1 SUBUNIT    0.1366
      9 C42         -23.333111   12.374268   -0.119947 C.2      1 SUBUNIT    0.3047
     10 C41         -22.400476   11.221308   -0.467769 C.2      1 SUBUNIT    0.1093
     11 C40         -22.776445    9.951316   -0.784581 C.2      1 SUBUNIT   -0.0354
     12 C39         -21.784243    8.807123   -1.105767 C.3      1 SUBUNIT    0.1040
     13 S38         -20.057320    9.095959   -0.546775 S.3      1 SUBUNIT   -0.1315
     14 N37         -18.118835   11.080868    0.827336 N.am     1 SUBUNIT   -0.2993
     15 C36         -19.894430   10.823940   -1.071987 C.3      1 SUBUNIT    0.1722
     16 N35         -20.975239   11.598640   -0.470896 N.am     1 SUBUNIT   -0.2488
     17 C34         -20.260773   12.378337    0.337992 C.2      1 SUBUNIT    0.2460
     18 O33         -23.185793   13.508883   -0.581762 O.2      1 SUBUNIT   -0.2594
     19 H38         -18.255947   11.162976    1.814484 H        1 SUBUNIT    0.0000
     20 H40         -16.450321    9.706436    2.041627 H        1 SUBUNIT    0.0000
     21 H42         -15.281686    9.849989    0.910563 H        1 SUBUNIT    0.0000
     22 H44         -16.302393    8.576111    0.872823 H        1 SUBUNIT    0.0000
     23 H46         -24.183975    8.438756   -1.144955 H        1 SUBUNIT    0.0000
     24 H48         -24.707638    9.916077   -1.602038 H        1 SUBUNIT    0.0000
     25 H50         -24.679701    9.513146   -0.019982 H        1 SUBUNIT    0.0000
     26 H52         -18.218330   12.315145   -0.640871 H        1 SUBUNIT    0.0000
     27 H54         -22.117891    7.974325   -0.664036 H        1 SUBUNIT    0.0000
     28 H56         -21.771517    8.676987   -2.097181 H        1 SUBUNIT    0.0000
     29 H58         -19.710775   10.686560   -2.045331 H        1 SUBUNIT    0.0000
@<TRIPOS>BOND
     1    3    1 1
     2    3    2 2
     3    7    6 1
     4    9    7 1
     5   10    9 1
     6   11    5 1
     7   11   10 2
     8   12   11 1
     9   13   12 1
    10   14    3 1
    11   14    8 1
    12   15   13 1
    13   15    8 1
    14   16   10 1
    15   16   15 1
    16   17    4 2
    17   17   16 1
    18   17    8 1
    19   18    9 2
    20   14   19 1
    21    1   20 1
    22    1   21 1
    23    1   22 1
    24    5   23 1
    25    5   24 1
    26    5   25 1
    27    8   26 1
    28   12   27 1
    29   12   28 1
    30   15   29 1
@<SCITEGIC>ATOM_PROPERTY
Formal Charge
SciTegic.value.StringValue
1 0
2 0
3 0
4 0
5 0
6 0
7 0
8 0
9 0
10 0
11 0
12 0
13 0
14 0
15 0
16 0
17 0
18 0
19 0
20 0
21 0
22 0
23 0
24 0
25 0
26 0
27 0
28 0
29 0

@<SCITEGIC>ATOM_PROPERTY
pdb_tempFactor
SciTegic.value.DoubleValue
1 0.00
2 0.00
3 0.00
4 0.00
5 0.00
6 0.00
7 0.00
8 0.00
9 0.00
10 0.00
11 0.00
12 0.00
13 0.00
14 0.00
15 0.00
16 0.00
17 0.00
18 0.00
19 0.00
20 0.00
21 0.00
22 0.00
23 0.00
24 0.00
25 0.00
26 0.00
27 0.00
28 0.00
29 0.00

@<SCITEGIC>ATOM_PROPERTY
pdb_occupancy
SciTegic.value.DoubleValue
1 1.00
2 1.00
3 1.00
4 1.00
5 1.00
6 1.00
7 1.00
8 1.00
9 1.00
10 1.00
11 1.00
12 1.00
13 1.00
14 1.00
15 1.00
16 1.00
17 1.00
18 1.00
19 1.00
20 1.00
21 1.00
22 1.00
23 1.00
24 1.00
25 1.00
26 1.00
27 1.00
28 1.00
29 1.00

#	Created by:	Discovery Studio
#	Creation time:	2024-01-11T11:02:43Z

@<SCITEGIC>ROOT_PROPERTY
Ligand:MaximumNumberOfAtoms
SciTegic.value.IntegerValue
100

@<SCITEGIC>ROOT_PROPERTY
Ligand:HydrogenAtomsCountTowardsMaximum
SciTegic.value.BooleanValue
FALSE

@<TRIPOS>MOLECULE
methylpenicillin
   34    35     0 0 0
SMALL
USER_CHARGES


@<TRIPOS>ATOM
      1 O14         -23.495533   13.201945   -1.055765 O.2      1 SUBUNIT   -0.2645
      2 C15         -20.086433   10.825033   -1.087565 C.3      1 SUBUNIT    0.1680
      3 N16         -21.049633   11.728828   -0.421265 N.am     1 SUBUNIT   -0.2709
      4 C17         -22.397333   11.254429    0.032535 C.3      1 SUBUNIT    0.1896
      5 C18         -22.530733    9.754333   -0.449965 C.3      1 SUBUNIT    0.0405
      6 C19         -20.196333   12.411029    0.349035 C.2      1 SUBUNIT    0.2422
      7 C20         -23.321432    8.855233    0.592235 C.3      1 SUBUNIT    0.0253
      8 C21         -23.172531    9.643833   -1.902465 C.3      1 SUBUNIT    0.0253
      9 C22         -23.578632   12.279728   -0.202465 C.2      1 SUBUNIT    0.2805
     10 S23         -20.745333    9.201632   -0.509165 S.3      1 SUBUNIT   -0.1276
     11 O24         -20.310032   13.279445    1.241435 O.2      1 SUBUNIT   -0.2748
     12 C25         -17.010031   10.277637    0.498235 C.2      1 SUBUNIT    0.2094
     13 O26         -16.408527   10.444135   -0.601465 O.2      1 SUBUNIT   -0.2780
     14 N27         -18.252234   10.801433    0.756235 N.am     1 SUBUNIT   -0.2993
     15 H28         -18.654934   10.643834    1.582135 H        1 SUBUNIT    0.1505
     16 C29         -16.424229    9.493033    1.598735 C.3      1 SUBUNIT    0.1111
     17 O30         -24.675032   12.147328    0.545835 O.3      1 SUBUNIT   -0.3302
     18 H31         -25.298332   12.849537    0.292335 H        1 SUBUNIT    0.2214
     19 C32         -19.145033   11.661628   -0.287465 C.3      1 SUBUNIT    0.1359
     20 C4000       -18.044136   12.437133   -1.034603 C.3      1 SUBUNIT    0.0000
     21 H42         -19.813999   10.614363   -2.026393 H        1 SUBUNIT    0.0000
     22 H44         -22.486622   11.233250    1.028316 H        1 SUBUNIT    0.0000
     23 H46         -23.381342    7.918610    0.247175 H        1 SUBUNIT    0.0000
     24 H48         -24.242773    9.222881    0.718809 H        1 SUBUNIT    0.0000
     25 H50         -22.838995    8.857009    1.468196 H        1 SUBUNIT    0.0000
     26 H52         -23.237717    8.681504   -2.166270 H        1 SUBUNIT    0.0000
     27 H54         -22.597137   10.130846   -2.559576 H        1 SUBUNIT    0.0000
     28 H56         -24.086496   10.049633   -1.895309 H        1 SUBUNIT    0.0000
     29 H58         -17.055241    9.483168    2.374391 H        1 SUBUNIT    0.0000
     30 H60         -15.558154    9.906745    1.879476 H        1 SUBUNIT    0.0000
     31 H62         -16.261053    8.555801    1.290474 H        1 SUBUNIT    0.0000
     32 H64         -17.492393   12.950177   -0.377121 H        1 SUBUNIT    0.0000
     33 H66         -18.464417   13.071678   -1.683271 H        1 SUBUNIT    0.0000
     34 H68         -17.459728   11.793823   -1.529250 H        1 SUBUNIT    0.0000
@<TRIPOS>BOND
     1    1    9 2
     2    2   10 1
     3    2    3 1
     4    2   19 1
     5    3    4 1
     6    3    6 1
     7    4    5 1
     8    4    9 1
     9    5   10 1
    10    5    7 1
    11    5    8 1
    12    6   19 1
    13    6   11 2
    14    9   17 1
    15   12   13 2
    16   12   16 1
    17   12   14 1
    18   14   19 1
    19   14   15 1
    20   17   18 1
    21   19   20 1
    22    2   21 1
    23    4   22 1
    24    7   23 1
    25    7   24 1
    26    7   25 1
    27    8   26 1
    28    8   27 1
    29    8   28 1
    30   16   29 1
    31   16   30 1
    32   16   31 1
    33   20   32 1
    34   20   33 1
    35   20   34 1
@<SCITEGIC>ATOM_PROPERTY
Formal Charge
SciTegic.value.StringValue
1 0
2 0
3 0
4 0
5 0
6 0
7 0
8 0
9 0
10 0
11 0
12 0
13 0
14 0
15 0
16 0
17 0
18 0
19 0
20 0
21 0
22 0
23 0
24 0
25 0
26 0
27 0
28 0
29 0
30 0
31 0
32 0
33 0
34 0

@<SCITEGIC>ATOM_PROPERTY
pdb_tempFactor
SciTegic.value.DoubleValue
1 0.00
2 0.00
3 0.00
4 0.00
5 0.00
6 0.00
7 0.00
8 0.00
9 0.00
10 0.00
11 0.00
12 0.00
13 0.00
14 0.00
15 0.00
16 0.00
17 0.00
18 0.00
19 0.00
20 0.00
21 0.00
22 0.00
23 0.00
24 0.00
25 0.00
26 0.00
27 0.00
28 0.00
29 0.00
30 0.00
31 0.00
32 0.00
33 0.00
34 0.00

@<SCITEGIC>ATOM_PROPERTY
pdb_occupancy
SciTegic.value.DoubleValue
1 1.00
2 1.00
3 1.00
4 1.00
5 1.00
6 1.00
7 1.00
8 1.00
9 1.00
10 1.00
11 1.00
12 1.00
13 1.00
14 1.00
15 1.00
16 1.00
17 1.00
18 1.00
19 1.00
20 1.00
21 1.00
22 1.00
23 1.00
24 1.00
25 1.00
26 1.00
27 1.00
28 1.00
29 1.00
30 1.00
31 1.00
32 1.00
33 1.00
34 1.00

#	Created by:	Discovery Studio
#	Creation time:	2024-01-11T11:02:43Z

@<SCITEGIC>ROOT_PROPERTY
Ligand:MaximumNumberOfAtoms
SciTegic.value.IntegerValue
100

@<SCITEGIC>ROOT_PROPERTY
Ligand:HydrogenAtomsCountTowardsMaximum
SciTegic.value.BooleanValue
FALSE

@<TRIPOS>MOLECULE
daladala
   28    27     0 0 0
SMALL
USER_CHARGES


@<TRIPOS>ATOM
      1 C5500       -17.320887   13.079395   -0.217814 C.3      1 SUBUNIT   -0.0378
      2 C54         -15.872059   10.115137    2.208038 C.3      1 SUBUNIT    0.1111
      3 O53         -15.896432   11.229013    0.136434 O.2      1 SUBUNIT   -0.2780
      4 C52         -16.525826   10.850309    1.114121 C.2      1 SUBUNIT    0.2092
      5 H13         -23.299622   13.593534    0.878222 H        1 SUBUNIT    0.2214
      6 O12         -23.542498   12.650241    0.656558 O.3      1 SUBUNIT   -0.3303
      7 C11         -22.535484   10.110351   -0.844741 C.3      1 SUBUNIT    0.0395
      8 O10         -23.137115   13.339032   -0.997323 O.2      1 SUBUNIT   -0.2646
      9 C9          -23.130777   12.469844   -0.062836 C.2      1 SUBUNIT    0.2785
     10 C8          -22.026276   11.337056    0.005927 C.3      1 SUBUNIT    0.1666
     11 N7          -20.747993   11.842055   -0.601633 N.am     1 SUBUNIT   -0.3016
     12 H6          -20.604542   11.737307   -1.635943 H        1 SUBUNIT    0.1503
     13 O5          -19.981260   13.411530    0.942310 O.2      1 SUBUNIT   -0.2755
     14 C4          -19.754660   12.448875    0.151039 C.2      1 SUBUNIT    0.2325
     15 C3          -18.283047   11.868670   -0.031283 C.3      1 SUBUNIT    0.1566
     16 N2          -17.875896   11.112039    1.206114 N.am     1 SUBUNIT   -0.3042
     17 H32         -18.477612   10.847038    1.959582 H        1 SUBUNIT    0.0000
     18 H34         -16.385105   12.747090   -0.335302 H        1 SUBUNIT    0.0000
     19 H36         -17.365946   13.668921    0.588712 H        1 SUBUNIT    0.0000
     20 H38         -17.593061   13.600519   -1.026768 H        1 SUBUNIT    0.0000
     21 H40         -16.547226    9.893591    2.911590 H        1 SUBUNIT    0.0000
     22 H42         -15.150162   10.681287    2.606025 H        1 SUBUNIT    0.0000
     23 H44         -15.473803    9.270138    1.851076 H        1 SUBUNIT    0.0000
     24 H46         -21.853870    9.379210   -0.817324 H        1 SUBUNIT    0.0000
     25 H48         -22.677937   10.397236   -1.792084 H        1 SUBUNIT    0.0000
     26 H50         -23.397943    9.775771   -0.464905 H        1 SUBUNIT    0.0000
     27 H52         -21.862875   11.073510    0.956633 H        1 SUBUNIT    0.0000
     28 H54         -18.248119   11.252351   -0.818004 H        1 SUBUNIT    0.0000
@<TRIPOS>BOND
     1    4    2 1
     2    4    3 2
     3    6    5 1
     4    9    6 1
     5    9    8 2
     6   10    7 1
     7   10    9 1
     8   11   10 1
     9   12   11 1
    10   14   11 1
    11   14   13 2
    12   15    1 1
    13   15   14 1
    14   16    4 1
    15   16   15 1
    16   16   17 1
    17    1   18 1
    18    1   19 1
    19    1   20 1
    20    2   21 1
    21    2   22 1
    22    2   23 1
    23    7   24 1
    24    7   25 1
    25    7   26 1
    26   10   27 1
    27   15   28 1
@<SCITEGIC>ATOM_PROPERTY
Formal Charge
SciTegic.value.StringValue
1 0
2 0
3 0
4 0
5 0
6 0
7 0
8 0
9 0
10 0
11 0
12 0
13 0
14 0
15 0
16 0
17 0
18 0
19 0
20 0
21 0
22 0
23 0
24 0
25 0
26 0
27 0
28 0

@<SCITEGIC>ATOM_PROPERTY
pdb_tempFactor
SciTegic.value.DoubleValue
1 0.00
2 0.00
3 0.00
4 0.00
5 0.00
6 0.00
7 0.00
8 0.00
9 0.00
10 0.00
11 0.00
12 0.00
13 0.00
14 0.00
15 0.00
16 0.00
17 0.00
18 0.00
19 0.00
20 0.00
21 0.00
22 0.00
23 0.00
24 0.00
25 0.00
26 0.00
27 0.00
28 0.00

@<SCITEGIC>ATOM_PROPERTY
pdb_occupancy
SciTegic.value.DoubleValue
1 1.00
2 1.00
3 1.00
4 1.00
5 1.00
6 1.00
7 1.00
8 1.00
9 1.00
10 1.00
11 1.00
12 1.00
13 1.00
14 1.00
15 1.00
16 1.00
17 1.00
18 1.00
19 1.00
20 1.00
21 1.00
22 1.00
23 1.00
24 1.00
25 1.00
26 1.00
27 1.00
28 1.00

#	Created by:	Discovery Studio
#	Creation time:	2024-01-11T11:02:43Z

@<SCITEGIC>ROOT_PROPERTY
Ligand:MaximumNumberOfAtoms
SciTegic.value.IntegerValue
100

@<SCITEGIC>ROOT_PROPERTY
Ligand:HydrogenAtomsCountTowardsMaximum
SciTegic.value.BooleanValue
FALSE

@<TRIPOS>MOLECULE
penicillin
   31    32     0 0 0
SMALL
USER_CHARGES


@<TRIPOS>ATOM
      1 O14         -23.382147   13.211754   -1.033179 O.2      1 SUBUNIT   -0.2645
      2 C15         -19.971676   10.836816   -1.065417 C.3      1 SUBUNIT    0.1680
      3 N16         -20.935551   11.739710   -0.398872 N.am     1 SUBUNIT   -0.2709
      4 C17         -22.283085   11.264300    0.054364 C.3      1 SUBUNIT    0.1896
      5 C18         -22.415510    9.764381   -0.428948 C.3      1 SUBUNIT    0.0405
      6 C19         -20.082823   12.421999    0.371983 C.2      1 SUBUNIT    0.2422
      7 C20         -23.205938    8.864285    0.612598 C.3      1 SUBUNIT    0.0253
      8 C21         -23.056906    9.654270   -1.881656 C.3      1 SUBUNIT    0.0253
      9 C22         -23.464918   12.289044   -0.180379 C.2      1 SUBUNIT    0.2805
     10 S23         -20.629780    9.212737   -0.488017 S.3      1 SUBUNIT   -0.1276
     11 O24         -20.197231   13.289885    1.264808 O.2      1 SUBUNIT   -0.2748
     12 C25         -16.895330   10.290359    0.520819 C.2      1 SUBUNIT    0.2094
     13 O26         -16.293667   10.457776   -0.578653 O.2      1 SUBUNIT   -0.2780
     14 N27         -18.137896   10.813308    0.778800 N.am     1 SUBUNIT   -0.2993
     15 H28         -18.540699   10.655048    1.604524 H        1 SUBUNIT    0.1505
     16 C29         -16.309338    9.505518    1.621048 C.3      1 SUBUNIT    0.1111
     17 O30         -24.561417   12.155625    0.567595 O.3      1 SUBUNIT   -0.3302
     18 H31         -25.185061   12.857608    0.314315 H        1 SUBUNIT    0.2214
     19 C32         -19.030945   11.673532   -0.264661 C.3      1 SUBUNIT    0.1359
     20 H40         -19.698902   10.626791   -2.004291 H        1 SUBUNIT    0.0000
     21 H42         -22.372595   11.242551    1.050113 H        1 SUBUNIT    0.0000
     22 H44         -23.265230    7.927809    0.267036 H        1 SUBUNIT    0.0000
     23 H46         -24.127520    9.231339    0.739146 H        1 SUBUNIT    0.0000
     24 H48         -22.723707    8.865882    1.488672 H        1 SUBUNIT    0.0000
     25 H50         -23.121475    8.692042   -2.145977 H        1 SUBUNIT    0.0000
     26 H52         -22.481636   10.141956   -2.538377 H        1 SUBUNIT    0.0000
     27 H54         -23.971104   10.059542   -1.874504 H        1 SUBUNIT    0.0000
     28 H56         -16.940525    9.494887    2.396551 H        1 SUBUNIT    0.0000
     29 H58         -15.443567    9.919580    1.902208 H        1 SUBUNIT    0.0000
     30 H60         -16.145552    8.568541    1.312337 H        1 SUBUNIT    0.0000
     31 H62         -18.316252   12.177770   -0.749385 H        1 SUBUNIT    0.0000
@<TRIPOS>BOND
     1    1    9 2
     2    2   10 1
     3    2    3 1
     4    2   19 1
     5    3    4 1
     6    3    6 1
     7    4    5 1
     8    4    9 1
     9    5   10 1
    10    5    7 1
    11    5    8 1
    12    6   19 1
    13    6   11 2
    14    9   17 1
    15   12   13 2
    16   12   16 1
    17   12   14 1
    18   14   19 1
    19   14   15 1
    20   17   18 1
    21    2   20 1
    22    4   21 1
    23    7   22 1
    24    7   23 1
    25    7   24 1
    26    8   25 1
    27    8   26 1
    28    8   27 1
    29   16   28 1
    30   16   29 1
    31   16   30 1
    32   19   31 1
@<SCITEGIC>ATOM_PROPERTY
Formal Charge
SciTegic.value.StringValue
1 0
2 0
3 0
4 0
5 0
6 0
7 0
8 0
9 0
10 0
11 0
12 0
13 0
14 0
15 0
16 0
17 0
18 0
19 0
20 0
21 0
22 0
23 0
24 0
25 0
26 0
27 0
28 0
29 0
30 0
31 0

@<SCITEGIC>ATOM_PROPERTY
pdb_tempFactor
SciTegic.value.DoubleValue
1 0.00
2 0.00
3 0.00
4 0.00
5 0.00
6 0.00
7 0.00
8 0.00
9 0.00
10 0.00
11 0.00
12 0.00
13 0.00
14 0.00
15 0.00
16 0.00
17 0.00
18 0.00
19 0.00
20 0.00
21 0.00
22 0.00
23 0.00
24 0.00
25 0.00
26 0.00
27 0.00
28 0.00
29 0.00
30 0.00
31 0.00

@<SCITEGIC>ATOM_PROPERTY
pdb_occupancy
SciTegic.value.DoubleValue
1 1.00
2 1.00
3 1.00
4 1.00
5 1.00
6 1.00
7 1.00
8 1.00
9 1.00
10 1.00
11 1.00
12 1.00
13 1.00
14 1.00
15 1.00
16 1.00
17 1.00
18 1.00
19 1.00
20 1.00
21 1.00
22 1.00
23 1.00
24 1.00
25 1.00
26 1.00
27 1.00
28 1.00
29 1.00
30 1.00
31 1.00

#	Created by:	Discovery Studio
#	Creation time:	2024-01-11T11:02:43Z

@<SCITEGIC>ROOT_PROPERTY
Ligand:MaximumNumberOfAtoms
SciTegic.value.IntegerValue
100

@<SCITEGIC>ROOT_PROPERTY
Ligand:HydrogenAtomsCountTowardsMaximum
SciTegic.value.BooleanValue
FALSE

@<TRIPOS>MOLECULE
methylcephalosporin
   32    33     0 0 0
SMALL
USER_CHARGES


@<TRIPOS>ATOM
      1 C51         -16.371006    9.722109    1.034605 C.3      1 SUBUNIT    0.1111
      2 O50         -17.217703   10.427754   -1.052296 O.2      1 SUBUNIT   -0.2780
      3 C49         -17.310659   10.458817    0.171527 C.2      1 SUBUNIT    0.2094
      4 O47         -20.762413   13.271365    1.131948 O.2      1 SUBUNIT   -0.2744
      5 C46         -24.343754    9.344982   -0.990083 C.3      1 SUBUNIT    0.0425
      6 H45         -25.121878   12.843622    0.757246 H        1 SUBUNIT    0.2218
      7 O44         -24.571064   12.065891    0.611485 O.3      1 SUBUNIT   -0.3269
      8 C43         -19.150942   11.862864   -0.284690 C.3      1 SUBUNIT    0.1366
      9 C42         -23.554981   12.337248   -0.211899 C.2      1 SUBUNIT    0.3047
     10 C41         -22.587429   11.211211   -0.552484 C.2      1 SUBUNIT    0.1093
     11 C40         -22.924721    9.930439   -0.869442 C.2      1 SUBUNIT   -0.0354
     12 C39         -21.898037    8.814925   -1.183060 C.3      1 SUBUNIT    0.1040
     13 S38         -20.183464    9.154313   -0.614550 S.3      1 SUBUNIT   -0.1315
     14 N37         -18.311140   11.196336    0.767587 N.am     1 SUBUNIT   -0.2993
     15 C36         -20.067474   10.885529   -1.141563 C.3      1 SUBUNIT    0.1722
     16 N35         -21.173685   11.629545   -0.547969 N.am     1 SUBUNIT   -0.2488
     17 C34         -20.486753   12.430703    0.263796 C.2      1 SUBUNIT    0.2460
     18 O33         -23.437792   13.474985   -0.674661 O.2      1 SUBUNIT   -0.2594
     19 C3800       -18.052502   12.728760   -0.929095 C.3      1 SUBUNIT    0.0000
     20 H40         -18.456318   11.275857    1.753793 H        1 SUBUNIT    0.0000
     21 H42         -16.610741    9.872398    1.993697 H        1 SUBUNIT    0.0000
     22 H44         -15.440166   10.048033    0.869185 H        1 SUBUNIT    0.0000
     23 H46         -16.423428    8.745152    0.827570 H        1 SUBUNIT    0.0000
     24 H48         -24.285872    8.377347   -1.235541 H        1 SUBUNIT    0.0000
     25 H50         -24.849297    9.838274   -1.697999 H        1 SUBUNIT    0.0000
     26 H52         -24.818956    9.438575   -0.115167 H        1 SUBUNIT    0.0000
     27 H54         -22.210070    7.973468   -0.741941 H        1 SUBUNIT    0.0000
     28 H56         -21.875780    8.683799   -2.174176 H        1 SUBUNIT    0.0000
     29 H58         -19.874260   10.752122   -2.113607 H        1 SUBUNIT    0.0000
     30 H60         -18.444605   13.262020   -1.678633 H        1 SUBUNIT    0.0000
     31 H62         -17.327562   12.138506   -1.284226 H        1 SUBUNIT    0.0000
     32 H64         -17.671068   13.348810   -0.243456 H        1 SUBUNIT    0.0000
@<TRIPOS>BOND
     1    3    1 1
     2    3    2 2
     3    7    6 1
     4    9    7 1
     5   10    9 1
     6   11    5 1
     7   11   10 2
     8   12   11 1
     9   13   12 1
    10   14    3 1
    11   14    8 1
    12   15   13 1
    13   15    8 1
    14   16   10 1
    15   16   15 1
    16   17    4 2
    17   17   16 1
    18   17    8 1
    19   18    9 2
    20    8   19 1
    21   14   20 1
    22    1   21 1
    23    1   22 1
    24    1   23 1
    25    5   24 1
    26    5   25 1
    27    5   26 1
    28   12   27 1
    29   12   28 1
    30   15   29 1
    31   19   30 1
    32   19   31 1
    33   19   32 1
@<SCITEGIC>ATOM_PROPERTY
Formal Charge
SciTegic.value.StringValue
1 0
2 0
3 0
4 0
5 0
6 0
7 0
8 0
9 0
10 0
11 0
12 0
13 0
14 0
15 0
16 0
17 0
18 0
19 0
20 0
21 0
22 0
23 0
24 0
25 0
26 0
27 0
28 0
29 0
30 0
31 0
32 0

@<SCITEGIC>ATOM_PROPERTY
pdb_tempFactor
SciTegic.value.DoubleValue
1 0.00
2 0.00
3 0.00
4 0.00
5 0.00
6 0.00
7 0.00
8 0.00
9 0.00
10 0.00
11 0.00
12 0.00
13 0.00
14 0.00
15 0.00
16 0.00
17 0.00
18 0.00
19 0.00
20 0.00
21 0.00
22 0.00
23 0.00
24 0.00
25 0.00
26 0.00
27 0.00
28 0.00
29 0.00
30 0.00
31 0.00
32 0.00

@<SCITEGIC>ATOM_PROPERTY
pdb_occupancy
SciTegic.value.DoubleValue
1 1.00
2 1.00
3 1.00
4 1.00
5 1.00
6 1.00
7 1.00
8 1.00
9 1.00
10 1.00
11 1.00
12 1.00
13 1.00
14 1.00
15 1.00
16 1.00
17 1.00
18 1.00
19 1.00
20 1.00
21 1.00
22 1.00
23 1.00
24 1.00
25 1.00
26 1.00
27 1.00
28 1.00
29 1.00
30 1.00
31 1.00
32 1.00

