#	Created by:	Discovery Studio
#	Creation time:	2024-01-11T11:02:42Z

@<SCITEGIC>ROOT_PROPERTY
Ligand:MaximumNumberOfAtoms
SciTegic.value.IntegerValue
100

@<SCITEGIC>ROOT_PROPERTY
Ligand:HydrogenAtomsCountTowardsMaximum
SciTegic.value.BooleanValue
FALSE

@<TRIPOS>MOLECULE
null1.mol
   67    67     0 0 0
SMALL
USER_CHARGES


@<TRIPOS>ATOM
      1 H1           -4.207132    0.705624    1.614389 H        1 SUBUNIT    0.1501
      2 N2           -3.858824    1.682496    1.564190 N.am     1 SUBUNIT   -0.3042
      3 C3           -4.086655    2.460340    0.294361 C.3      1 SUBUNIT    0.1566
      4 C4           -5.540123    3.110416    0.313447 C.2      1 SUBUNIT    0.2325
      5 O5           -5.808778    4.081292    1.081167 O.2      1 SUBUNIT   -0.2755
      6 H6           -6.215028    2.444200   -1.563412 H        1 SUBUNIT    0.1503
      7 N7           -6.469575    2.553672   -0.551202 N.am     1 SUBUNIT   -0.3016
      8 C8           -7.831056    2.109641   -0.095836 C.3      1 SUBUNIT    0.1666
      9 C9           -8.865414    3.294469   -0.280601 C.2      1 SUBUNIT    0.2785
     10 O10          -8.724417    4.164821   -1.203316 O.2      1 SUBUNIT   -0.2646
     11 C11          -8.298478    0.910600   -1.007727 C.3      1 SUBUNIT    0.0395
     12 O12          -9.346914    3.493056    0.388955 O.3      1 SUBUNIT   -0.3303
     13 H13          -9.086044    4.423109    0.643672 H        1 SUBUNIT    0.2214
     14 O14          -8.850473    4.147597   -0.870900 O.2      1 SUBUNIT   -0.2645
     15 C15          -5.441374    1.770686   -0.902700 C.3      1 SUBUNIT    0.1680
     16 N16          -6.404574    2.674480   -0.236400 N.am     1 SUBUNIT   -0.2709
     17 C17          -7.752274    2.200080    0.217400 C.3      1 SUBUNIT    0.1896
     18 C18          -7.885674    0.699986   -0.265100 C.3      1 SUBUNIT    0.0405
     19 C19          -5.551274    3.356681    0.533900 C.2      1 SUBUNIT    0.2422
     20 C20          -8.676373   -0.199114    0.777100 C.3      1 SUBUNIT    0.0253
     21 C21          -8.527473    0.589486   -1.717600 C.3      1 SUBUNIT    0.0253
     22 C22          -8.933574    3.225380   -0.017600 C.2      1 SUBUNIT    0.2805
     23 S23          -6.100274    0.147286   -0.324300 S.3      1 SUBUNIT   -0.1276
     24 O24          -5.664974    4.225098    1.426300 O.2      1 SUBUNIT   -0.2748
     25 C25          -2.364971    1.223289    0.683100 C.2      1 SUBUNIT    0.2094
     26 O26          -1.763468    1.389788   -0.416600 O.2      1 SUBUNIT   -0.2780
     27 N27          -3.607173    1.747086    0.941100 N.am     1 SUBUNIT   -0.2993
     28 H28          -4.009874    1.589487    1.767000 H        1 SUBUNIT    0.1505
     29 C29          -1.779169    0.438686    1.783600 C.3      1 SUBUNIT    0.1111
     30 O30         -10.029973    3.092980    0.730700 O.3      1 SUBUNIT   -0.3302
     31 H31         -10.653274    3.795188    0.477200 H        1 SUBUNIT    0.2214
     32 C32          -4.499974    2.607280   -0.102600 C.3      1 SUBUNIT    0.1359
     33 O33          -8.347534    4.644708   -0.364800 O.2      1 SUBUNIT   -0.2594
     34 C34          -5.533134    3.162197    0.384300 C.2      1 SUBUNIT    0.2460
     35 N35          -6.381135    2.481197   -0.383700 N.am     1 SUBUNIT   -0.2488
     36 C36          -5.437535    1.587103   -1.046900 C.3      1 SUBUNIT    0.1722
     37 N37          -3.539335    1.612002    0.748200 N.am     1 SUBUNIT   -0.2993
     38 S38          -5.777935   -0.113099   -0.516100 S.3      1 SUBUNIT   -0.1315
     39 C39          -7.555934   -0.186998   -0.975900 C.3      1 SUBUNIT    0.1040
     40 C40          -8.382935    1.065602   -0.596600 C.2      1 SUBUNIT   -0.0354
     41 C41          -7.839034    2.278297   -0.299700 C.2      1 SUBUNIT    0.1093
     42 C42          -8.604435    3.532198    0.102800 C.2      1 SUBUNIT    0.3047
     43 C43          -4.333835    2.407597   -0.248100 C.3      1 SUBUNIT    0.1366
     44 O44          -9.596535    3.406398    0.988200 O.3      1 SUBUNIT   -0.3269
     45 H45         -10.014834    4.255907    1.169500 H        1 SUBUNIT    0.2218
     46 C46          -9.878235    0.699501   -0.628400 C.3      1 SUBUNIT    0.0425
     47 O47          -5.625635    4.025102    1.269300 O.2      1 SUBUNIT   -0.2744
     48 H48          -4.084435    1.378703    1.505600 H        1 SUBUNIT    0.1505
     49 C49          -2.464334    2.353197    1.190000 C.2      1 SUBUNIT    0.2094
     50 O50          -2.284933    3.489398    0.760800 O.2      1 SUBUNIT   -0.2780
     51 C51          -1.553029    1.749902    2.178000 C.3      1 SUBUNIT    0.1111
     52 C52          -2.500792    1.644590    1.796504 C.2      1 SUBUNIT    0.2092
     53 O53          -1.733411    2.193188    1.018307 O.2      1 SUBUNIT   -0.2780
     54 C54          -2.006942    0.937953    2.988692 C.3      1 SUBUNIT    0.1111
     55 C55          -3.052963    3.623668    0.226825 C.3      1 SUBUNIT   -0.0378
     56 H56          -2.009000    3.179796    0.215756 H        1 SUBUNIT    0.0254
     57 H57          -3.218312    4.227194   -0.717933 H        1 SUBUNIT    0.0254
     58 H58          -3.167382    4.294009    1.131579 H        1 SUBUNIT    0.0254
     59 C59          -3.518373    3.431983   -0.962900 C.3      1 SUBUNIT   -0.0321
     60 H60          -4.110474    4.035195   -1.696900 H        1 SUBUNIT    0.0259
     61 H61          -2.923973    4.118598   -0.308800 H        1 SUBUNIT    0.0259
     62 H62          -2.824574    2.748980   -1.515200 H        1 SUBUNIT    0.0259
     63 C63          -3.435235    3.286398   -1.144700 C.3      1 SUBUNIT   -0.0320
     64 H64          -4.088035    3.846398   -1.861100 H        1 SUBUNIT    0.0259
     65 H65          -2.863635    4.013302   -0.514100 H        1 SUBUNIT    0.0259
     66 H66          -2.718535    2.644597   -1.716700 H        1 SUBUNIT    0.0259
     67 C134         -0.954330    4.951958    1.095836 C.3      1 SUBUNIT    0.0000
@<TRIPOS>BOND
     1    1    2 1
     2    2    3 1
     3    2   52 1
     4    3    4 1
     5    3   55 1
     6    4    5 2
     7    4    7 1
     8    6    7 1
     9    7    8 1
    10    8    9 1
    11    8   11 1
    12    9   10 2
    13    9   12 1
    14   12   13 1
    15   14   22 2
    16   15   23 1
    17   15   16 1
    18   15   32 1
    19   16   17 1
    20   16   19 1
    21   17   18 1
    22   17   22 1
    23   18   23 1
    24   18   20 1
    25   18   21 1
    26   19   32 1
    27   19   24 2
    28   22   30 1
    29   25   26 2
    30   25   29 1
    31   25   27 1
    32   27   32 1
    33   27   28 1
    34   30   31 1
    35   32   59 1
    36   33   42 2
    37   34   43 1
    38   34   35 1
    39   34   47 2
    40   35   36 1
    41   35   41 1
    42   36   43 1
    43   36   38 1
    44   37   43 1
    45   37   49 1
    46   37   48 1
    47   38   39 1
    48   39   40 1
    49   40   41 2
    50   40   46 1
    51   41   42 1
    52   42   44 1
    53   43   63 1
    54   44   45 1
    55   49   50 2
    56   49   51 1
    57   52   53 2
    58   52   54 1
    59   55   56 1
    60   55   57 1
    61   55   58 1
    62   59   60 1
    63   59   61 1
    64   59   62 1
    65   63   64 1
    66   63   65 1
    67   63   66 1
@<SCITEGIC>ATOM_PROPERTY
Formal Charge
SciTegic.value.StringValue
1 0
2 0
3 0
4 0
5 0
6 0
7 0
8 0
9 0
10 0
11 0
12 0
13 0
14 0
15 0
16 0
17 0
18 0
19 0
20 0
21 0
22 0
23 0
24 0
25 0
26 0
27 0
28 0
29 0
30 0
31 0
32 0
33 0
34 0
35 0
36 0
37 0
38 0
39 0
40 0
41 0
42 0
43 0
44 0
45 0
46 0
47 0
48 0
49 0
50 0
51 0
52 0
53 0
54 0
55 0
56 0
57 0
58 0
59 0
60 0
61 0
62 0
63 0
64 0
65 0
66 0
67 0

@<SCITEGIC>ATOM_PROPERTY
pdb_tempFactor
SciTegic.value.DoubleValue
1 0.00
2 0.00
3 0.00
4 0.00
5 0.00
6 0.00
7 0.00
8 0.00
9 0.00
10 0.00
11 0.00
12 0.00
13 0.00
14 0.00
15 0.00
16 0.00
17 0.00
18 0.00
19 0.00
20 0.00
21 0.00
22 0.00
23 0.00
24 0.00
25 0.00
26 0.00
27 0.00
28 0.00
29 0.00
30 0.00
31 0.00
32 0.00
33 0.00
34 0.00
35 0.00
36 0.00
37 0.00
38 0.00
39 0.00
40 0.00
41 0.00
42 0.00
43 0.00
44 0.00
45 0.00
46 0.00
47 0.00
48 0.00
49 0.00
50 0.00
51 0.00
52 0.00
53 0.00
54 0.00
55 0.00
56 0.00
57 0.00
58 0.00
59 0.00
60 0.00
61 0.00
62 0.00
63 0.00
64 0.00
65 0.00
66 0.00
67 0.00

@<SCITEGIC>ATOM_PROPERTY
pdb_occupancy
SciTegic.value.DoubleValue
1 1.00
2 1.00
3 1.00
4 1.00
5 1.00
6 1.00
7 1.00
8 1.00
9 1.00
10 1.00
11 1.00
12 1.00
13 1.00
14 1.00
15 1.00
16 1.00
17 1.00
18 1.00
19 1.00
20 1.00
21 1.00
22 1.00
23 1.00
24 1.00
25 1.00
26 1.00
27 1.00
28 1.00
29 1.00
30 1.00
31 1.00
32 1.00
33 1.00
34 1.00
35 1.00
36 1.00
37 1.00
38 1.00
39 1.00
40 1.00
41 1.00
42 1.00
43 1.00
44 1.00
45 1.00
46 1.00
47 1.00
48 1.00
49 1.00
50 1.00
51 1.00
52 1.00
53 1.00
54 1.00
55 1.00
56 1.00
57 1.00
58 1.00
59 1.00
60 1.00
61 1.00
62 1.00
63 1.00
64 1.00
65 1.00
66 1.00
67 1.00

#	Created by:	Discovery Studio
#	Creation time:	2024-01-11T11:02:42Z

@<SCITEGIC>ROOT_PROPERTY
Ligand:MaximumNumberOfAtoms
SciTegic.value.IntegerValue
100

@<SCITEGIC>ROOT_PROPERTY
Ligand:HydrogenAtomsCountTowardsMaximum
SciTegic.value.BooleanValue
FALSE

@<TRIPOS>MOLECULE
Molecule
    1     0     0 0 0
SMALL
USER_CHARGES


@<TRIPOS>ATOM
      1 C1            2.333104    2.778805    0.363740 C.3      1 SUBUNIT    0.0000
@<SCITEGIC>ATOM_PROPERTY
Formal Charge
SciTegic.value.StringValue
1 0

@<SCITEGIC>ATOM_PROPERTY
pdb_tempFactor
SciTegic.value.DoubleValue
1 0.00

@<SCITEGIC>ATOM_PROPERTY
pdb_occupancy
SciTegic.value.DoubleValue
1 1.00

